280

Al -1.89056804344 0.398818669855 1.69125375
Al 1.83173954188 1.99409334928 1.69125375
Al 0.76822308893 14.7562907846 1.69125375
Al -1.35880981696 9.43870851991 1.69125375
Al 2.36349776835 11.0339831993 1.69125375
Al -0.295293364017 12.0974996523 1.69125375
Al 6.08580535367 12.6292578787 1.69125375
Al 3.4270142213 13.6927743317 1.69125375
Al 9.80811293898 14.2245325582 1.69125375
Al 7.14932180661 15.2880490111 1.69125375
Al 0.236464862456 5.71640093459 1.69125375
Al 3.95877244777 7.31167561401 1.69125375
Al 1.2999813154 8.37519206696 1.69125375
Al 7.68108003309 8.90695029343 1.69125375
Al 5.02228890072 9.97046674638 1.69125375
Al 11.4033876184 10.5022249729 1.69125375
Al 8.74459648604 11.5657414258 1.69125375
Al 12.4669040714 13.1610161052 1.69125375
Al -0.827051590491 3.05760980222 1.69125375
Al 5.55404712719 3.5893680287 1.69125375
Al 2.89525599482 4.65288448164 1.69125375
Al 9.27635471251 5.18464270812 1.69125375
Al 6.61756358014 6.24815916107 1.69125375
Al 12.9986622978 6.77991738754 1.69125375
Al 10.3398711655 7.84343384049 1.69125375
Al 4.49053067425 0.930576896329 1.69125375
Al 10.8716293919 1.4623351228 1.69125375
Al 8.21283825956 2.52585157575 1.69125375
Al 11.9351458449 4.12112625517 1.69125375
Al 0.76822308893 14.7562907846 5.74100375
Al -1.09293070373 13.9586534449 3.71612875
Al 2.62937688159 15.5539281244 3.71612875
Al -1.35880981696 9.43870851991 5.74100375
Al 2.36349776835 11.0339831993 5.74100375
Al -0.295293364017 12.0974996523 5.74100375
Al 0.502343975693 10.2363458596 3.71612875
Al 1.56586042864 12.895136992 3.71612875
Al 6.08580535367 12.6292578787 5.74100375
Al 3.4270142213 13.6927743317 5.74100375
Al 4.22465156101 11.831620539 3.71612875
Al 5.28816801396 14.4904116714 3.71612875
Al 9.80811293898 14.2245325582 5.74100375
Al 7.14932180661 15.2880490111 5.74100375
Al 7.94695914632 13.4268952185 3.71612875
Al 11.6692667316 15.0221698979 3.71612875
Al 0.236464862456 5.71640093459 5.74100375
Al -1.6246889302 4.91876359488 3.71612875
Al -0.561172477254 7.57755472725 3.71612875
Al 3.95877244777 7.31167561401 5.74100375
Al 1.2999813154 8.37519206696 5.74100375
Al 2.09761865511 6.5140382743 3.71612875
Al 3.16113510806 9.17282940667 3.71612875
Al 7.68108003309 8.90695029343 5.74100375
Al 5.02228890072 9.97046674638 5.74100375
Al 5.81992624043 8.10931295372 3.71612875
Al 6.88344269338 10.7681040861 3.71612875
Al 11.4033876184 10.5022249729 5.74100375
Al 8.74459648604 11.5657414258 5.74100375
Al 9.54223382575 9.70458763314 3.71612875
Al 10.6057502787 12.3633787655 3.71612875
Al 12.4669040714 13.1610161052 5.74100375
Al 13.2645414111 11.2998623126 3.71612875
Al -1.89056804344 0.398818669855 5.74100375
Al 1.83173954188 1.99409334928 5.74100375
Al -0.827051590491 3.05760980222 5.74100375
Al -0.0294142507803 1.19645600957 3.71612875
Al 1.03410220217 3.85524714193 3.71612875
Al 5.55404712719 3.5893680287 5.74100375
Al 2.89525599482 4.65288448164 5.74100375
Al 3.69289333454 2.79173068899 3.71612875
Al 4.75640978748 5.45052182136 3.71612875
Al 9.27635471251 5.18464270812 5.74100375
Al 6.61756358014 6.24815916107 5.74100375
Al 7.41520091985 4.38700536841 3.71612875
Al 8.4787173728 7.04579650078 3.71612875
Al 12.9986622978 6.77991738754 5.74100375
Al 10.3398711655 7.84343384049 5.74100375
Al 11.1375085052 5.98228004783 3.71612875
Al 12.2010249581 8.6410711802 3.71612875
Al 4.49053067425 0.930576896329 5.74100375
Al 6.3516844669 1.72821423604 3.71612875
Al 10.8716293919 1.4623351228 5.74100375
Al 8.21283825956 2.52585157575 5.74100375
Al 9.01047559927 0.664697783092 3.71612875
Al 10.0739920522 3.32348891546 3.71612875
Al 11.9351458449 4.12112625517 5.74100375
Al 12.7327831846 2.25997246251 3.71612875
Al 0.76822308893 14.7562907846 9.79075375
Al -1.09293070373 13.9586534449 7.76587875
Al 2.62937688159 15.5539281244 7.76587875
Al -1.35880981696 9.43870851991 9.79075375
Al 2.36349776835 11.0339831993 9.79075375
Al -0.295293364017 12.0974996523 9.79075375
Al 0.502343975693 10.2363458596 7.76587875
Al 1.56586042864 12.895136992 7.76587875
Al 6.08580535367 12.6292578787 9.79075375
Al 3.4270142213 13.6927743317 9.79075375
Al 4.22465156101 11.831620539 7.76587875
Al 5.28816801396 14.4904116714 7.76587875
Al 9.80811293898 14.2245325582 9.79075375
Al 7.14932180661 15.2880490111 9.79075375
Al 7.94695914632 13.4268952185 7.76587875
Al 11.6692667316 15.0221698979 7.76587875
Al 0.236464862456 5.71640093459 9.79075375
Al -1.6246889302 4.91876359488 7.76587875
Al -0.561172477254 7.57755472725 7.76587875
Al 3.95877244777 7.31167561401 9.79075375
Al 1.2999813154 8.37519206696 9.79075375
Al 2.09761865511 6.5140382743 7.76587875
Al 3.16113510806 9.17282940667 7.76587875
Al 7.68108003309 8.90695029343 9.79075375
Al 5.02228890072 9.97046674638 9.79075375
Al 5.81992624043 8.10931295372 7.76587875
Al 6.88344269338 10.7681040861 7.76587875
Al 11.4033876184 10.5022249729 9.79075375
Al 8.74459648604 11.5657414258 9.79075375
Al 9.54223382575 9.70458763314 7.76587875
Al 10.6057502787 12.3633787655 7.76587875
Al 12.4669040714 13.1610161052 9.79075375
Al 13.2645414111 11.2998623126 7.76587875
Al -1.89056804344 0.398818669855 9.79075375
Al 1.83173954188 1.99409334928 9.79075375
Al -0.827051590491 3.05760980222 9.79075375
Al -0.0294142507803 1.19645600957 7.76587875
Al 1.03410220217 3.85524714193 7.76587875
Al 5.55404712719 3.5893680287 9.79075375
Al 2.89525599482 4.65288448164 9.79075375
Al 3.69289333454 2.79173068899 7.76587875
Al 4.75640978748 5.45052182136 7.76587875
Al 9.27635471251 5.18464270812 9.79075375
Al 6.61756358014 6.24815916107 9.79075375
Al 7.41520091985 4.38700536841 7.76587875
Al 8.4787173728 7.04579650078 7.76587875
Al 12.9986622978 6.77991738754 9.79075375
Al 10.3398711655 7.84343384049 9.79075375
Al 11.1375085052 5.98228004783 7.76587875
Al 12.2010249581 8.6410711802 7.76587875
Al 4.49053067425 0.930576896329 9.79075375
Al 6.3516844669 1.72821423604 7.76587875
Al 10.8716293919 1.4623351228 9.79075375
Al 8.21283825956 2.52585157575 9.79075375
Al 9.01047559927 0.664697783092 7.76587875
Al 10.0739920522 3.32348891546 7.76587875
Al 11.9351458449 4.12112625517 9.79075375
Al 12.7327831846 2.25997246251 7.76587875
Si 0.0 -0 0.0
Si 3.83996458844 3.83996458844 0.0
Si 0.0 7.67992917687 0.0
Si 0.0 3.83996458844 0.0
Si 7.67992917687 -0 0.0
Si 3.83996458844 -0 0.0
Si 11.5198937653 3.83996458844 0.0
Si 11.5198937653 -0 0.0
Si 7.67992917687 7.67992917687 0.0
Si 7.67992917687 3.83996458844 0.0
Si 3.83996458844 11.5198937653 0.0
Si 3.83996458844 7.67992917687 0.0
Si 0.0 11.5198937653 0.0
Si 11.5198937653 11.5198937653 0.0
Si 11.5198937653 7.67992917687 0.0
Si 7.67992917687 11.5198937653 0.0
Si 0.0 -0 -5.43053
Si 7.67992917687 -0 -5.43053
Si 3.83996458844 1.91998229422 -1.3576325
Si 1.91998229422 -0 -4.0728975
Si 5.75994688266 -0 -4.0728975
Si 3.83996458844 3.83996458844 -5.43053
Si 3.83996458844 -0 -5.43053
Si 5.75994688266 1.91998229422 -2.715265
Si 1.91998229422 1.91998229422 -2.715265
Si 0.0 1.91998229422 -1.3576325
Si 0.0 5.75994688266 -1.3576325
Si 1.91998229422 3.83996458844 -4.0728975
Si 0.0 7.67992917687 -5.43053
Si 0.0 3.83996458844 -5.43053
Si 1.91998229422 5.75994688266 -2.715265
Si 11.5198937653 1.91998229422 -1.3576325
Si 9.59991147109 -0 -4.0728975
Si 13.4398760595 -0 -4.0728975
Si 11.5198937653 3.83996458844 -5.43053
Si 11.5198937653 -0 -5.43053
Si 13.4398760595 1.91998229422 -2.715265
Si 9.59991147109 1.91998229422 -2.715265
Si 7.67992917687 1.91998229422 -1.3576325
Si 7.67992917687 5.75994688266 -1.3576325
Si 5.75994688266 3.83996458844 -4.0728975
Si 9.59991147109 3.83996458844 -4.0728975
Si 7.67992917687 7.67992917687 -5.43053
Si 7.67992917687 3.83996458844 -5.43053
Si 9.59991147109 5.75994688266 -2.715265
Si 5.75994688266 5.75994688266 -2.715265
Si 3.83996458844 5.75994688266 -1.3576325
Si 3.83996458844 9.59991147109 -1.3576325
Si 1.91998229422 7.67992917687 -4.0728975
Si 5.75994688266 7.67992917687 -4.0728975
Si 3.83996458844 11.5198937653 -5.43053
Si 3.83996458844 7.67992917687 -5.43053
Si 5.75994688266 9.59991147109 -2.715265
Si 1.91998229422 9.59991147109 -2.715265
Si 0.0 9.59991147109 -1.3576325
Si 0.0 13.4398760595 -1.3576325
Si 1.91998229422 11.5198937653 -4.0728975
Si 0.0 11.5198937653 -5.43053
Si 1.91998229422 13.4398760595 -2.715265
Si 13.4398760595 3.83996458844 -4.0728975
Si 13.4398760595 5.75994688266 -2.715265
Si 11.5198937653 5.75994688266 -1.3576325
Si 11.5198937653 9.59991147109 -1.3576325
Si 9.59991147109 7.67992917687 -4.0728975
Si 13.4398760595 7.67992917687 -4.0728975
Si 11.5198937653 11.5198937653 -5.43053
Si 11.5198937653 7.67992917687 -5.43053
Si 13.4398760595 9.59991147109 -2.715265
Si 9.59991147109 9.59991147109 -2.715265
Si 7.67992917687 9.59991147109 -1.3576325
Si 7.67992917687 13.4398760595 -1.3576325
Si 5.75994688266 11.5198937653 -4.0728975
Si 9.59991147109 11.5198937653 -4.0728975
Si 7.67992917687 11.5198937653 -5.43053
Si 9.59991147109 13.4398760595 -2.715265
Si 5.75994688266 13.4398760595 -2.715265
Si 3.83996458844 13.4398760595 -1.3576325
Si 1.91998229422 15.3598583537 -4.0728975
Si 15.3598583537 9.59991147109 -1.3576325
Si 15.3598583537 13.4398760595 -1.3576325
Si 13.4398760595 11.5198937653 -4.0728975
Si 13.4398760595 13.4398760595 -2.715265
Si 11.5198937653 13.4398760595 -1.3576325
Si 13.4398760595 15.3598583537 -4.0728975
Si 3.83996458844 1.91998229422 -6.7881625
Si 1.91998229422 -0 -9.5034275
Si 5.75994688266 -0 -9.5034275
Si 5.75994688266 1.91998229422 -8.145795
Si 1.91998229422 1.91998229422 -8.145795
Si 0.0 1.91998229422 -6.7881625
Si 0.0 5.75994688266 -6.7881625
Si 1.91998229422 3.83996458844 -9.5034275
Si 1.91998229422 5.75994688266 -8.145795
Si 11.5198937653 1.91998229422 -6.7881625
Si 9.59991147109 -0 -9.5034275
Si 13.4398760595 -0 -9.5034275
Si 13.4398760595 1.91998229422 -8.145795
Si 9.59991147109 1.91998229422 -8.145795
Si 7.67992917687 1.91998229422 -6.7881625
Si 7.67992917687 5.75994688266 -6.7881625
Si 5.75994688266 3.83996458844 -9.5034275
Si 9.59991147109 3.83996458844 -9.5034275
Si 9.59991147109 5.75994688266 -8.145795
Si 5.75994688266 5.75994688266 -8.145795
Si 3.83996458844 5.75994688266 -6.7881625
Si 3.83996458844 9.59991147109 -6.7881625
Si 1.91998229422 7.67992917687 -9.5034275
Si 5.75994688266 7.67992917687 -9.5034275
Si 5.75994688266 9.59991147109 -8.145795
Si 1.91998229422 9.59991147109 -8.145795
Si 0.0 9.59991147109 -6.7881625
Si 0.0 13.4398760595 -6.7881625
Si 1.91998229422 11.5198937653 -9.5034275
Si 1.91998229422 13.4398760595 -8.145795
Si 15.3598583537 1.91998229422 -6.7881625
Si 13.4398760595 3.83996458844 -9.5034275
Si 13.4398760595 5.75994688266 -8.145795
Si 11.5198937653 5.75994688266 -6.7881625
Si 11.5198937653 9.59991147109 -6.7881625
Si 9.59991147109 7.67992917687 -9.5034275
Si 13.4398760595 7.67992917687 -9.5034275
Si 13.4398760595 9.59991147109 -8.145795
Si 9.59991147109 9.59991147109 -8.145795
Si 7.67992917687 9.59991147109 -6.7881625
Si 7.67992917687 13.4398760595 -6.7881625
Si 5.75994688266 11.5198937653 -9.5034275
Si 9.59991147109 11.5198937653 -9.5034275
Si 9.59991147109 13.4398760595 -8.145795
Si 5.75994688266 13.4398760595 -8.145795
Si 3.83996458844 13.4398760595 -6.7881625
Si 15.3598583537 13.4398760595 -6.7881625
Si 13.4398760595 11.5198937653 -9.5034275
Si 13.4398760595 13.4398760595 -8.145795
Si 11.5198937653 13.4398760595 -6.7881625
Si 13.4398760595 15.3598583537 -9.5034275
