18

Ga 0.0 0.0 0.0
Ga 0.0 2.826 2.826
Ga 2.826 0.0 2.826
Ga 2.826 2.826 0.0
Ga 5.652 0.0 0.0
Ga 0.0 5.652 0.0
Ga 0.0 0.0 5.652
Ga 5.652 5.652 0.0
Ga 5.652 0.0 5.652
Ga 0.0 5.652 5.652
Ga 5.652 5.652 5.652
Ga 5.652 2.826 2.826
Ga 2.826 5.652 2.826
Ga 2.826 2.826 5.652
As 4.239 4.239 1.413
As 4.239 1.413 4.239
As 1.413 4.239 4.239
As 1.413 1.413 1.413
