343

H	-3.75	-3.75	-1.5
H	-3.5	-3.5	-1
H	-3.25	-3.25	-0.5
H	-3	-3	0
H	-2.75	-2.75	0.5
H	-2.5	-2.5	1
H	-2.25	-2.25	1.5
H	-2.75	-3.75	-1.5
H	-2.5	-3.5	-1
H	-2.25	-3.25	-0.5
H	-2	-3	0
H	-1.75	-2.75	0.5
H	-1.5	-2.5	1
H	-1.25	-2.25	1.5
H	-1.75	-3.75	-1.5
H	-1.5	-3.5	-1
H	-1.25	-3.25	-0.5
H	-1	-3	0
H	-0.75	-2.75	0.5
H	-0.5	-2.5	1
H	-0.25	-2.25	1.5
H	-0.75	-3.75	-1.5
H	-0.5	-3.5	-1
H	-0.25	-3.25	-0.5
H	0	-3	0
H	0.25	-2.75	0.5
H	0.5	-2.5	1
H	0.75	-2.25	1.5
H	0.25	-3.75	-1.5
H	0.5	-3.5	-1
H	0.75	-3.25	-0.5
H	1	-3	0
H	1.25	-2.75	0.5
H	1.5	-2.5	1
H	1.75	-2.25	1.5
H	1.25	-3.75	-1.5
H	1.5	-3.5	-1
H	1.75	-3.25	-0.5
H	2	-3	0
H	2.25	-2.75	0.5
H	2.5	-2.5	1
H	2.75	-2.25	1.5
H	2.25	-3.75	-1.5
H	2.5	-3.5	-1
H	2.75	-3.25	-0.5
H	3	-3	0
H	3.25	-2.75	0.5
H	3.5	-2.5	1
H	3.75	-2.25	1.5
H	-3.75	-2.75	-1.5
H	-3.5	-2.5	-1
H	-3.25	-2.25	-0.5
H	-3	-2	0
H	-2.75	-1.75	0.5
H	-2.5	-1.5	1
H	-2.25	-1.25	1.5
H	-2.75	-2.75	-1.5
H	-2.5	-2.5	-1
H	-2.25	-2.25	-0.5
H	-2	-2	0
H	-1.75	-1.75	0.5
H	-1.5	-1.5	1
H	-1.25	-1.25	1.5
H	-1.75	-2.75	-1.5
H	-1.5	-2.5	-1
H	-1.25	-2.25	-0.5
H	-1	-2	0
H	-0.75	-1.75	0.5
H	-0.5	-1.5	1
H	-0.25	-1.25	1.5
H	-0.75	-2.75	-1.5
H	-0.5	-2.5	-1
H	-0.25	-2.25	-0.5
H	0	-2	0
H	0.25	-1.75	0.5
H	0.5	-1.5	1
H	0.75	-1.25	1.5
H	0.25	-2.75	-1.5
H	0.5	-2.5	-1
H	0.75	-2.25	-0.5
H	1	-2	0
H	1.25	-1.75	0.5
H	1.5	-1.5	1
H	1.75	-1.25	1.5
H	1.25	-2.75	-1.5
H	1.5	-2.5	-1
H	1.75	-2.25	-0.5
H	2	-2	0
H	2.25	-1.75	0.5
H	2.5	-1.5	1
H	2.75	-1.25	1.5
H	2.25	-2.75	-1.5
H	2.5	-2.5	-1
H	2.75	-2.25	-0.5
H	3	-2	0
H	3.25	-1.75	0.5
H	3.5	-1.5	1
H	3.75	-1.25	1.5
H	-3.75	-1.75	-1.5
H	-3.5	-1.5	-1
H	-3.25	-1.25	-0.5
H	-3	-1	0
H	-2.75	-0.75	0.5
H	-2.5	-0.5	1
H	-2.25	-0.25	1.5
H	-2.75	-1.75	-1.5
H	-2.5	-1.5	-1
H	-2.25	-1.25	-0.5
H	-2	-1	0
H	-1.75	-0.75	0.5
H	-1.5	-0.5	1
H	-1.25	-0.25	1.5
H	-1.75	-1.75	-1.5
H	-1.5	-1.5	-1
H	-1.25	-1.25	-0.5
H	-1	-1	0
H	-0.75	-0.75	0.5
H	-0.5	-0.5	1
H	-0.25	-0.25	1.5
H	-0.75	-1.75	-1.5
H	-0.5	-1.5	-1
H	-0.25	-1.25	-0.5
H	0	-1	0
H	0.25	-0.75	0.5
H	0.5	-0.5	1
H	0.75	-0.25	1.5
H	0.25	-1.75	-1.5
H	0.5	-1.5	-1
H	0.75	-1.25	-0.5
H	1	-1	0
H	1.25	-0.75	0.5
H	1.5	-0.5	1
H	1.75	-0.25	1.5
H	1.25	-1.75	-1.5
H	1.5	-1.5	-1
H	1.75	-1.25	-0.5
H	2	-1	0
H	2.25	-0.75	0.5
H	2.5	-0.5	1
H	2.75	-0.25	1.5
H	2.25	-1.75	-1.5
H	2.5	-1.5	-1
H	2.75	-1.25	-0.5
H	3	-1	0
H	3.25	-0.75	0.5
H	3.5	-0.5	1
H	3.75	-0.25	1.5
H	-3.75	-0.75	-1.5
H	-3.5	-0.5	-1
H	-3.25	-0.25	-0.5
H	-3	0	0
H	-2.75	0.25	0.5
H	-2.5	0.5	1
H	-2.25	0.75	1.5
H	-2.75	-0.75	-1.5
H	-2.5	-0.5	-1
H	-2.25	-0.25	-0.5
H	-2	0	0
H	-1.75	0.25	0.5
H	-1.5	0.5	1
H	-1.25	0.75	1.5
H	-1.75	-0.75	-1.5
H	-1.5	-0.5	-1
H	-1.25	-0.25	-0.5
H	-1	0	0
H	-0.75	0.25	0.5
H	-0.5	0.5	1
H	-0.25	0.75	1.5
H	-0.75	-0.75	-1.5
H	-0.5	-0.5	-1
H	-0.25	-0.25	-0.5
H	0	0	0
H	0.25	0.25	0.5
H	0.5	0.5	1
H	0.75	0.75	1.5
H	0.25	-0.75	-1.5
H	0.5	-0.5	-1
H	0.75	-0.25	-0.5
H	1	0	0
H	1.25	0.25	0.5
H	1.5	0.5	1
H	1.75	0.75	1.5
H	1.25	-0.75	-1.5
H	1.5	-0.5	-1
H	1.75	-0.25	-0.5
H	2	0	0
H	2.25	0.25	0.5
H	2.5	0.5	1
H	2.75	0.75	1.5
H	2.25	-0.75	-1.5
H	2.5	-0.5	-1
H	2.75	-0.25	-0.5
H	3	0	0
H	3.25	0.25	0.5
H	3.5	0.5	1
H	3.75	0.75	1.5
H	-3.75	0.25	-1.5
H	-3.5	0.5	-1
H	-3.25	0.75	-0.5
H	-3	1	0
H	-2.75	1.25	0.5
H	-2.5	1.5	1
H	-2.25	1.75	1.5
H	-2.75	0.25	-1.5
H	-2.5	0.5	-1
H	-2.25	0.75	-0.5
H	-2	1	0
H	-1.75	1.25	0.5
H	-1.5	1.5	1
H	-1.25	1.75	1.5
H	-1.75	0.25	-1.5
H	-1.5	0.5	-1
H	-1.25	0.75	-0.5
H	-1	1	0
H	-0.75	1.25	0.5
H	-0.5	1.5	1
H	-0.25	1.75	1.5
H	-0.75	0.25	-1.5
H	-0.5	0.5	-1
H	-0.25	0.75	-0.5
H	0	1	0
H	0.25	1.25	0.5
H	0.5	1.5	1
H	0.75	1.75	1.5
H	0.25	0.25	-1.5
H	0.5	0.5	-1
H	0.75	0.75	-0.5
H	1	1	0
H	1.25	1.25	0.5
H	1.5	1.5	1
H	1.75	1.75	1.5
H	1.25	0.25	-1.5
H	1.5	0.5	-1
H	1.75	0.75	-0.5
H	2	1	0
H	2.25	1.25	0.5
H	2.5	1.5	1
H	2.75	1.75	1.5
H	2.25	0.25	-1.5
H	2.5	0.5	-1
H	2.75	0.75	-0.5
H	3	1	0
H	3.25	1.25	0.5
H	3.5	1.5	1
H	3.75	1.75	1.5
H	-3.75	1.25	-1.5
H	-3.5	1.5	-1
H	-3.25	1.75	-0.5
H	-3	2	0
H	-2.75	2.25	0.5
H	-2.5	2.5	1
H	-2.25	2.75	1.5
H	-2.75	1.25	-1.5
H	-2.5	1.5	-1
H	-2.25	1.75	-0.5
H	-2	2	0
H	-1.75	2.25	0.5
H	-1.5	2.5	1
H	-1.25	2.75	1.5
H	-1.75	1.25	-1.5
H	-1.5	1.5	-1
H	-1.25	1.75	-0.5
H	-1	2	0
H	-0.75	2.25	0.5
H	-0.5	2.5	1
H	-0.25	2.75	1.5
H	-0.75	1.25	-1.5
H	-0.5	1.5	-1
H	-0.25	1.75	-0.5
H	0	2	0
H	0.25	2.25	0.5
H	0.5	2.5	1
H	0.75	2.75	1.5
H	0.25	1.25	-1.5
H	0.5	1.5	-1
H	0.75	1.75	-0.5
H	1	2	0
H	1.25	2.25	0.5
H	1.5	2.5	1
H	1.75	2.75	1.5
H	1.25	1.25	-1.5
H	1.5	1.5	-1
H	1.75	1.75	-0.5
H	2	2	0
H	2.25	2.25	0.5
H	2.5	2.5	1
H	2.75	2.75	1.5
H	2.25	1.25	-1.5
H	2.5	1.5	-1
H	2.75	1.75	-0.5
H	3	2	0
H	3.25	2.25	0.5
H	3.5	2.5	1
H	3.75	2.75	1.5
H	-3.75	2.25	-1.5
H	-3.5	2.5	-1
H	-3.25	2.75	-0.5
H	-3	3	0
H	-2.75	3.25	0.5
H	-2.5	3.5	1
H	-2.25	3.75	1.5
H	-2.75	2.25	-1.5
H	-2.5	2.5	-1
H	-2.25	2.75	-0.5
H	-2	3	0
H	-1.75	3.25	0.5
H	-1.5	3.5	1
H	-1.25	3.75	1.5
H	-1.75	2.25	-1.5
H	-1.5	2.5	-1
H	-1.25	2.75	-0.5
H	-1	3	0
H	-0.75	3.25	0.5
H	-0.5	3.5	1
H	-0.25	3.75	1.5
H	-0.75	2.25	-1.5
H	-0.5	2.5	-1
H	-0.25	2.75	-0.5
H	0	3	0
H	0.25	3.25	0.5
H	0.5	3.5	1
H	0.75	3.75	1.5
H	0.25	2.25	-1.5
H	0.5	2.5	-1
H	0.75	2.75	-0.5
H	1	3	0
H	1.25	3.25	0.5
H	1.5	3.5	1
H	1.75	3.75	1.5
H	1.25	2.25	-1.5
H	1.5	2.5	-1
H	1.75	2.75	-0.5
H	2	3	0
H	2.25	3.25	0.5
H	2.5	3.5	1
H	2.75	3.75	1.5
H	2.25	2.25	-1.5
H	2.5	2.5	-1
H	2.75	2.75	-0.5
H	3	3	0
H	3.25	3.25	0.5
H	3.5	3.5	1
H	3.75	3.75	1.5
