27

Na 0.0 0.0 0.0
Na 0.0 2.82865 2.82865
Na 2.82865 0.0 2.82865
Na 2.82865 2.82865 0.0
Na 5.6573 0.0 0.0
Na 0.0 5.6573 0.0
Na 0.0 0.0 5.6573
Na 5.6573 5.6573 0.0
Na 5.6573 0.0 5.6573
Na 0.0 5.6573 5.6573
Na 5.6573 5.6573 5.6573
Na 5.6573 2.82865 2.82865
Na 2.82865 5.6573 2.82865
Na 2.82865 2.82865 5.6573
Cl 2.82865 2.82865 2.82865
Cl 2.82865 5.6573 0.0
Cl 2.82865 0.0 5.6573
Cl 2.82865 5.6573 5.6573
Cl 2.82865 0.0 0.0
Cl 5.6573 2.82865 0.0
Cl 5.6573 2.82865 5.6573
Cl 0.0 2.82865 5.6573
Cl 0.0 2.82865 0.0
Cl 5.6573 5.6573 2.82865
Cl 5.6573 0.0 2.82865
Cl 0.0 5.6573 2.82865
Cl 0.0 0.0 2.82865

