108

Si	-4.0729	9.5034	9.5034
Si	9.5034	-4.0729	9.5034
Si	9.5034	9.5034	-4.0729
Si	1.3576	9.5034	9.5034
Si	-1.3576	6.7882	9.5034
Si	-4.0729	4.0729	9.5034
Si	-1.3576	9.5034	6.7882
Si	-4.0729	6.7882	6.7882
Si	-4.0729	9.5034	4.0729
Si	-4.0729	-1.3576	9.5034
Si	-4.0729	9.5034	-1.3576
Si	9.5034	1.3576	9.5034
Si	6.7882	-1.3576	9.5034
Si	4.0729	-4.0729	9.5034
Si	9.5034	-1.3576	6.7882
Si	6.7882	-4.0729	6.7882
Si	9.5034	-4.0729	4.0729
Si	-1.3576	-4.0729	9.5034
Si	9.5034	-4.0729	-1.3576
Si	9.5034	9.5034	1.3576
Si	6.7882	9.5034	-1.3576
Si	4.0729	9.5034	-4.0729
Si	9.5034	6.7882	-1.3576
Si	6.7882	6.7882	-4.0729
Si	9.5034	4.0729	-4.0729
Si	-1.3576	9.5034	-4.0729
Si	9.5034	-1.3576	-4.0729
Si	-4.0729	-4.0729	6.7882
Si	-4.0729	6.7882	-4.0729
Si	6.7882	-4.0729	-4.0729
Si	6.7882	9.5034	9.5034
Si	4.0729	6.7882	9.5034
Si	1.3576	4.0729	9.5034
Si	-1.3576	1.3576	9.5034
Si	4.0729	9.5034	6.7882
Si	1.3576	9.5034	4.0729
Si	-1.3576	9.5034	1.3576
Si	1.3576	6.7882	6.7882
Si	-1.3576	4.0729	6.7882
Si	-4.0729	1.3576	6.7882
Si	-1.3576	6.7882	4.0729
Si	-4.0729	4.0729	4.0729
Si	-4.0729	6.7882	1.3576
Si	9.5034	6.7882	9.5034
Si	6.7882	4.0729	9.5034
Si	4.0729	1.3576	9.5034
Si	1.3576	-1.3576	9.5034
Si	9.5034	9.5034	6.7882
Si	-1.3576	-1.3576	6.7882
Si	6.7882	9.5034	4.0729
Si	4.0729	9.5034	1.3576
Si	1.3576	9.5034	-1.3576
Si	-1.3576	6.7882	-1.3576
Si	-4.0729	-1.3576	4.0729
Si	-4.0729	4.0729	-1.3576
Si	9.5034	4.0729	6.7882
Si	9.5034	1.3576	4.0729
Si	9.5034	-1.3576	1.3576
Si	6.7882	1.3576	6.7882
Si	4.0729	-1.3576	6.7882
Si	1.3576	-4.0729	6.7882
Si	6.7882	-1.3576	4.0729
Si	4.0729	-4.0729	4.0729
Si	6.7882	-4.0729	1.3576
Si	9.5034	6.7882	4.0729
Si	9.5034	4.0729	1.3576
Si	9.5034	1.3576	-1.3576
Si	6.7882	-1.3576	-1.3576
Si	-1.3576	-4.0729	4.0729
Si	4.0729	-4.0729	-1.3576
Si	6.7882	6.7882	1.3576
Si	4.0729	6.7882	-1.3576
Si	1.3576	6.7882	-4.0729
Si	6.7882	4.0729	-1.3576
Si	4.0729	4.0729	-4.0729
Si	6.7882	1.3576	-4.0729
Si	-1.3576	4.0729	-4.0729
Si	4.0729	-1.3576	-4.0729
Si	-4.0729	-4.0729	1.3576
Si	-4.0729	1.3576	-4.0729
Si	1.3576	-4.0729	-4.0729
Si	6.7882	6.7882	6.7882
Si	4.0729	4.0729	6.7882
Si	1.3576	1.3576	6.7882
Si	4.0729	6.7882	4.0729
Si	1.3576	4.0729	4.0729
Si	-1.3576	1.3576	4.0729
Si	1.3576	6.7882	1.3576
Si	-1.3576	4.0729	1.3576
Si	-4.0729	1.3576	1.3576
Si	6.7882	4.0729	4.0729
Si	4.0729	1.3576	4.0729
Si	1.3576	-1.3576	4.0729
Si	4.0729	4.0729	1.3576
Si	-1.3576	-1.3576	1.3576
Si	1.3576	4.0729	-1.3576
Si	-1.3576	1.3576	-1.3576
Si	-4.0729	-1.3576	-1.3576
Si	6.7882	1.3576	1.3576
Si	4.0729	-1.3576	1.3576
Si	1.3576	-4.0729	1.3576
Si	4.0729	1.3576	-1.3576
Si	1.3576	-1.3576	-1.3576
Si	-1.3576	-4.0729	-1.3576
Si	1.3576	1.3576	-4.0729
Si	-1.3576	-1.3576	-4.0729
Si	-4.0729	-4.0729	-4.0729
Si	1.3576	1.3576	1.3576

