38

O	5.074781	5.87222438	1.92134795
O	0.21043908	5.78546264	2.50226077
O	3.62979507	6.22829086	2.00551683
O	1.1037737	4.19919732	0.63032202
O	4.70275852	1.46266243	4.43814757
O	4.25314658	1.68942135	-0.62648939
O	2.48316524	2.0239077	1.24599432
O	-0.00154284	1.90530903	0.08096849
O	9.64288404	1.17844046	2.61609943
O	2.00514144	1.54248065	4.413534
O	4.7995555	6.3649664	4.5598944
O	4.18863728	6.49738007	-0.56609056
O	1.71314225	6.80347376	0.47808444
O	9.61653661	5.88226401	-2.17713908
O	-0.53509153	6.61824534	4.86694249
O	2.06468673	6.09644618	4.46404519
O	3.22908252	8.43691051	5.06675464
O	8.62333789	8.31177861	4.05375225
O	5.12345268	1.56339012	1.86477798
O	5.53799519	8.35718501	2.95279514
O	3.4863744	8.69738081	0.76407642
O	0.31911991	2.56666024	2.61563143
O	0.39210183	-0.03434635	2.82269608
O	1.22791433	8.1263128	3.33929094
O	7.22002715	1.37224701	3.60592073
O	7.16133472	6.27249374	3.18986027
Si	5.69003858	0.92847055	3.26272137
Si	3.3375886	0.99619321	5.17753836
Si	3.86045709	1.24333693	0.87803478
Si	0.9882631	2.65667404	1.12175173
Si	8.73806726	0.84963693	3.92082577
Si	0.54507995	1.39114496	3.71842159
Si	5.63026104	6.75801504	3.21196528
Si	3.35972971	6.82617752	5.16061123
Si	3.29133509	7.10515348	0.63215155
Si	0.59589309	5.70846036	0.92507318
Si	8.6038322	6.71263037	3.77014918
Si	0.67343833	6.62156139	3.80319142
